
---------- Begin Simulation Statistics ----------
final_tick                                   64627000                       # Number of ticks from beginning of simulation (restored from checkpoints and never reset)
host_inst_rate                                 138097                       # Simulator instruction rate (inst/s)
host_mem_usage                                 679844                       # Number of bytes of host memory used
host_op_rate                                   158994                       # Simulator op (including micro ops) rate (op/s)
host_seconds                                     0.08                       # Real time elapsed on the host
host_tick_rate                              778816096                       # Simulator tick rate (ticks/s)
sim_freq                                 1000000000000                       # Frequency of simulated ticks
sim_insts                                       11444                       # Number of instructions simulated
sim_ops                                         13191                       # Number of ops (including micro ops) simulated
sim_seconds                                  0.000065                       # Number of seconds simulated
sim_ticks                                    64627000                       # Number of ticks simulated
system.cpu.branchPred.BTBCorrect                    0                       # Number of correct BTB predictions (this stat may not work properly.
system.cpu.branchPred.BTBHitPct             26.635945                       # BTB Hit Percentage
system.cpu.branchPred.BTBHits                     867                       # Number of BTB hits
system.cpu.branchPred.BTBLookups                 3255                       # Number of BTB lookups
system.cpu.branchPred.RASInCorrect                  5                       # Number of incorrect RAS predictions.
system.cpu.branchPred.condIncorrect               579                       # Number of conditional branches incorrect
system.cpu.branchPred.condPredicted              2613                       # Number of conditional branches predicted
system.cpu.branchPred.indirectHits                 61                       # Number of indirect target hits.
system.cpu.branchPred.indirectLookups             195                       # Number of indirect predictor lookups.
system.cpu.branchPred.indirectMisses              134                       # Number of indirect misses.
system.cpu.branchPred.lookups                    3885                       # Number of BP lookups
system.cpu.branchPred.usedRAS                     324                       # Number of times the RAS was used to get a target.
system.cpu.branchPredindirectMispredicted           67                       # Number of mispredicted indirect branches.
system.cpu.committedInsts                       11444                       # Number of instructions committed
system.cpu.committedOps                         13191                       # Number of ops (including micro ops) committed
system.cpu.cpi                               5.647239                       # CPI: cycles per instruction
system.cpu.discardedOps                          1900                       # Number of ops (including micro ops) which were discarded before commit
system.cpu.dtb.accesses                             0                       # DTB accesses
system.cpu.dtb.align_faults                         0                       # Number of TLB faults due to alignment restrictions
system.cpu.dtb.domain_faults                        0                       # Number of TLB faults due to domain restrictions
system.cpu.dtb.flush_entries                        0                       # Number of entries that have been flushed from TLB
system.cpu.dtb.flush_tlb                            0                       # Number of times complete TLB was flushed
system.cpu.dtb.flush_tlb_asid                       0                       # Number of times TLB was flushed by ASID
system.cpu.dtb.flush_tlb_mva                        0                       # Number of times TLB was flushed by MVA
system.cpu.dtb.flush_tlb_mva_asid                   0                       # Number of times TLB was flushed by MVA & ASID
system.cpu.dtb.hits                                 0                       # DTB hits
system.cpu.dtb.inst_accesses                        0                       # ITB inst accesses
system.cpu.dtb.inst_hits                            0                       # ITB inst hits
system.cpu.dtb.inst_misses                          0                       # ITB inst misses
system.cpu.dtb.misses                               0                       # DTB misses
system.cpu.dtb.perms_faults                         0                       # Number of TLB faults due to permissions restrictions
system.cpu.dtb.prefetch_faults                      0                       # Number of TLB faults due to prefetch
system.cpu.dtb.read_accesses                        0                       # DTB read accesses
system.cpu.dtb.read_hits                            0                       # DTB read hits
system.cpu.dtb.read_misses                          0                       # DTB read misses
system.cpu.dtb.stage2_mmu.stage2_tlb.accesses            0                       # DTB accesses
system.cpu.dtb.stage2_mmu.stage2_tlb.align_faults            0                       # Number of TLB faults due to alignment restrictions
system.cpu.dtb.stage2_mmu.stage2_tlb.domain_faults            0                       # Number of TLB faults due to domain restrictions
system.cpu.dtb.stage2_mmu.stage2_tlb.flush_entries            0                       # Number of entries that have been flushed from TLB
system.cpu.dtb.stage2_mmu.stage2_tlb.flush_tlb            0                       # Number of times complete TLB was flushed
system.cpu.dtb.stage2_mmu.stage2_tlb.flush_tlb_asid            0                       # Number of times TLB was flushed by ASID
system.cpu.dtb.stage2_mmu.stage2_tlb.flush_tlb_mva            0                       # Number of times TLB was flushed by MVA
system.cpu.dtb.stage2_mmu.stage2_tlb.flush_tlb_mva_asid            0                       # Number of times TLB was flushed by MVA & ASID
system.cpu.dtb.stage2_mmu.stage2_tlb.hits            0                       # DTB hits
system.cpu.dtb.stage2_mmu.stage2_tlb.inst_accesses            0                       # ITB inst accesses
system.cpu.dtb.stage2_mmu.stage2_tlb.inst_hits            0                       # ITB inst hits
system.cpu.dtb.stage2_mmu.stage2_tlb.inst_misses            0                       # ITB inst misses
system.cpu.dtb.stage2_mmu.stage2_tlb.misses            0                       # DTB misses
system.cpu.dtb.stage2_mmu.stage2_tlb.perms_faults            0                       # Number of TLB faults due to permissions restrictions
system.cpu.dtb.stage2_mmu.stage2_tlb.prefetch_faults            0                       # Number of TLB faults due to prefetch
system.cpu.dtb.stage2_mmu.stage2_tlb.read_accesses            0                       # DTB read accesses
system.cpu.dtb.stage2_mmu.stage2_tlb.read_hits            0                       # DTB read hits
system.cpu.dtb.stage2_mmu.stage2_tlb.read_misses            0                       # DTB read misses
system.cpu.dtb.stage2_mmu.stage2_tlb.walker.walkRequestOrigin_Requested::Data            0                       # Table walker requests started/completed, data/inst
system.cpu.dtb.stage2_mmu.stage2_tlb.walker.walkRequestOrigin_Requested::Inst            0                       # Table walker requests started/completed, data/inst
system.cpu.dtb.stage2_mmu.stage2_tlb.walker.walkRequestOrigin_Requested::total            0                       # Table walker requests started/completed, data/inst
system.cpu.dtb.stage2_mmu.stage2_tlb.walker.walkRequestOrigin_Completed::Data            0                       # Table walker requests started/completed, data/inst
system.cpu.dtb.stage2_mmu.stage2_tlb.walker.walkRequestOrigin_Completed::Inst            0                       # Table walker requests started/completed, data/inst
system.cpu.dtb.stage2_mmu.stage2_tlb.walker.walkRequestOrigin_Completed::total            0                       # Table walker requests started/completed, data/inst
system.cpu.dtb.stage2_mmu.stage2_tlb.walker.walkRequestOrigin::total            0                       # Table walker requests started/completed, data/inst
system.cpu.dtb.stage2_mmu.stage2_tlb.walker.walks            0                       # Table walker walks requested
system.cpu.dtb.stage2_mmu.stage2_tlb.write_accesses            0                       # DTB write accesses
system.cpu.dtb.stage2_mmu.stage2_tlb.write_hits            0                       # DTB write hits
system.cpu.dtb.stage2_mmu.stage2_tlb.write_misses            0                       # DTB write misses
system.cpu.dtb.walker.walkRequestOrigin_Requested::Data            0                       # Table walker requests started/completed, data/inst
system.cpu.dtb.walker.walkRequestOrigin_Requested::Inst            0                       # Table walker requests started/completed, data/inst
system.cpu.dtb.walker.walkRequestOrigin_Requested::total            0                       # Table walker requests started/completed, data/inst
system.cpu.dtb.walker.walkRequestOrigin_Completed::Data            0                       # Table walker requests started/completed, data/inst
system.cpu.dtb.walker.walkRequestOrigin_Completed::Inst            0                       # Table walker requests started/completed, data/inst
system.cpu.dtb.walker.walkRequestOrigin_Completed::total            0                       # Table walker requests started/completed, data/inst
system.cpu.dtb.walker.walkRequestOrigin::total            0                       # Table walker requests started/completed, data/inst
system.cpu.dtb.walker.walks                         0                       # Table walker walks requested
system.cpu.dtb.write_accesses                       0                       # DTB write accesses
system.cpu.dtb.write_hits                           0                       # DTB write hits
system.cpu.dtb.write_misses                         0                       # DTB write misses
system.cpu.fetch2.amo_instructions                  0                       # Number of memory atomic instructions successfully decoded
system.cpu.fetch2.fp_instructions                   0                       # Number of floating point instructions successfully decoded
system.cpu.fetch2.int_instructions              10796                       # Number of integer instructions successfully decoded
system.cpu.fetch2.load_instructions              2556                       # Number of memory load instructions successfully decoded
system.cpu.fetch2.store_instructions             1446                       # Number of memory store instructions successfully decoded
system.cpu.fetch2.vec_instructions                  0                       # Number of SIMD instructions successfully decoded
system.cpu.idleCycles                           44113                       # Total number of cycles that the object has spent stopped
system.cpu.ipc                               0.177078                       # IPC: instructions per cycle
system.cpu.itb.accesses                             0                       # DTB accesses
system.cpu.itb.align_faults                         0                       # Number of TLB faults due to alignment restrictions
system.cpu.itb.domain_faults                        0                       # Number of TLB faults due to domain restrictions
system.cpu.itb.flush_entries                        0                       # Number of entries that have been flushed from TLB
system.cpu.itb.flush_tlb                            0                       # Number of times complete TLB was flushed
system.cpu.itb.flush_tlb_asid                       0                       # Number of times TLB was flushed by ASID
system.cpu.itb.flush_tlb_mva                        0                       # Number of times TLB was flushed by MVA
system.cpu.itb.flush_tlb_mva_asid                   0                       # Number of times TLB was flushed by MVA & ASID
system.cpu.itb.hits                                 0                       # DTB hits
system.cpu.itb.inst_accesses                        0                       # ITB inst accesses
system.cpu.itb.inst_hits                            0                       # ITB inst hits
system.cpu.itb.inst_misses                          0                       # ITB inst misses
system.cpu.itb.misses                               0                       # DTB misses
system.cpu.itb.perms_faults                         0                       # Number of TLB faults due to permissions restrictions
system.cpu.itb.prefetch_faults                      0                       # Number of TLB faults due to prefetch
system.cpu.itb.read_accesses                        0                       # DTB read accesses
system.cpu.itb.read_hits                            0                       # DTB read hits
system.cpu.itb.read_misses                          0                       # DTB read misses
system.cpu.itb.stage2_mmu.stage2_tlb.accesses            0                       # DTB accesses
system.cpu.itb.stage2_mmu.stage2_tlb.align_faults            0                       # Number of TLB faults due to alignment restrictions
system.cpu.itb.stage2_mmu.stage2_tlb.domain_faults            0                       # Number of TLB faults due to domain restrictions
system.cpu.itb.stage2_mmu.stage2_tlb.flush_entries            0                       # Number of entries that have been flushed from TLB
system.cpu.itb.stage2_mmu.stage2_tlb.flush_tlb            0                       # Number of times complete TLB was flushed
system.cpu.itb.stage2_mmu.stage2_tlb.flush_tlb_asid            0                       # Number of times TLB was flushed by ASID
system.cpu.itb.stage2_mmu.stage2_tlb.flush_tlb_mva            0                       # Number of times TLB was flushed by MVA
system.cpu.itb.stage2_mmu.stage2_tlb.flush_tlb_mva_asid            0                       # Number of times TLB was flushed by MVA & ASID
system.cpu.itb.stage2_mmu.stage2_tlb.hits            0                       # DTB hits
system.cpu.itb.stage2_mmu.stage2_tlb.inst_accesses            0                       # ITB inst accesses
system.cpu.itb.stage2_mmu.stage2_tlb.inst_hits            0                       # ITB inst hits
system.cpu.itb.stage2_mmu.stage2_tlb.inst_misses            0                       # ITB inst misses
system.cpu.itb.stage2_mmu.stage2_tlb.misses            0                       # DTB misses
system.cpu.itb.stage2_mmu.stage2_tlb.perms_faults            0                       # Number of TLB faults due to permissions restrictions
system.cpu.itb.stage2_mmu.stage2_tlb.prefetch_faults            0                       # Number of TLB faults due to prefetch
system.cpu.itb.stage2_mmu.stage2_tlb.read_accesses            0                       # DTB read accesses
system.cpu.itb.stage2_mmu.stage2_tlb.read_hits            0                       # DTB read hits
system.cpu.itb.stage2_mmu.stage2_tlb.read_misses            0                       # DTB read misses
system.cpu.itb.stage2_mmu.stage2_tlb.walker.walkRequestOrigin_Requested::Data            0                       # Table walker requests started/completed, data/inst
system.cpu.itb.stage2_mmu.stage2_tlb.walker.walkRequestOrigin_Requested::Inst            0                       # Table walker requests started/completed, data/inst
system.cpu.itb.stage2_mmu.stage2_tlb.walker.walkRequestOrigin_Requested::total            0                       # Table walker requests started/completed, data/inst
system.cpu.itb.stage2_mmu.stage2_tlb.walker.walkRequestOrigin_Completed::Data            0                       # Table walker requests started/completed, data/inst
system.cpu.itb.stage2_mmu.stage2_tlb.walker.walkRequestOrigin_Completed::Inst            0                       # Table walker requests started/completed, data/inst
system.cpu.itb.stage2_mmu.stage2_tlb.walker.walkRequestOrigin_Completed::total            0                       # Table walker requests started/completed, data/inst
system.cpu.itb.stage2_mmu.stage2_tlb.walker.walkRequestOrigin::total            0                       # Table walker requests started/completed, data/inst
system.cpu.itb.stage2_mmu.stage2_tlb.walker.walks            0                       # Table walker walks requested
system.cpu.itb.stage2_mmu.stage2_tlb.write_accesses            0                       # DTB write accesses
system.cpu.itb.stage2_mmu.stage2_tlb.write_hits            0                       # DTB write hits
system.cpu.itb.stage2_mmu.stage2_tlb.write_misses            0                       # DTB write misses
system.cpu.itb.walker.walkRequestOrigin_Requested::Data            0                       # Table walker requests started/completed, data/inst
system.cpu.itb.walker.walkRequestOrigin_Requested::Inst            0                       # Table walker requests started/completed, data/inst
system.cpu.itb.walker.walkRequestOrigin_Requested::total            0                       # Table walker requests started/completed, data/inst
system.cpu.itb.walker.walkRequestOrigin_Completed::Data            0                       # Table walker requests started/completed, data/inst
system.cpu.itb.walker.walkRequestOrigin_Completed::Inst            0                       # Table walker requests started/completed, data/inst
system.cpu.itb.walker.walkRequestOrigin_Completed::total            0                       # Table walker requests started/completed, data/inst
system.cpu.itb.walker.walkRequestOrigin::total            0                       # Table walker requests started/completed, data/inst
system.cpu.itb.walker.walks                         0                       # Table walker walks requested
system.cpu.itb.write_accesses                       0                       # DTB write accesses
system.cpu.itb.write_hits                           0                       # DTB write hits
system.cpu.itb.write_misses                         0                       # DTB write misses
system.cpu.numCycles                            64627                       # number of cpu cycles simulated
system.cpu.numFetchSuspends                         0                       # Number of times Execute suspended instruction fetching
system.cpu.numWorkItemsCompleted                    0                       # number of work items this cpu completed
system.cpu.numWorkItemsStarted                      0                       # number of work items this cpu started
system.cpu.op_class_0::No_OpClass                   0      0.00%      0.00% # Class of committed instruction
system.cpu.op_class_0::IntAlu                    9218     69.88%     69.88% # Class of committed instruction
system.cpu.op_class_0::IntMult                     50      0.38%     70.26% # Class of committed instruction
system.cpu.op_class_0::IntDiv                       0      0.00%     70.26% # Class of committed instruction
system.cpu.op_class_0::FloatAdd                     0      0.00%     70.26% # Class of committed instruction
system.cpu.op_class_0::FloatCmp                     0      0.00%     70.26% # Class of committed instruction
system.cpu.op_class_0::FloatCvt                     0      0.00%     70.26% # Class of committed instruction
system.cpu.op_class_0::FloatMult                    0      0.00%     70.26% # Class of committed instruction
system.cpu.op_class_0::FloatMultAcc                 0      0.00%     70.26% # Class of committed instruction
system.cpu.op_class_0::FloatDiv                     0      0.00%     70.26% # Class of committed instruction
system.cpu.op_class_0::FloatMisc                    0      0.00%     70.26% # Class of committed instruction
system.cpu.op_class_0::FloatSqrt                    0      0.00%     70.26% # Class of committed instruction
system.cpu.op_class_0::SimdAdd                      0      0.00%     70.26% # Class of committed instruction
system.cpu.op_class_0::SimdAddAcc                   0      0.00%     70.26% # Class of committed instruction
system.cpu.op_class_0::SimdAlu                      0      0.00%     70.26% # Class of committed instruction
system.cpu.op_class_0::SimdCmp                      0      0.00%     70.26% # Class of committed instruction
system.cpu.op_class_0::SimdCvt                      0      0.00%     70.26% # Class of committed instruction
system.cpu.op_class_0::SimdMisc                     0      0.00%     70.26% # Class of committed instruction
system.cpu.op_class_0::SimdMult                     0      0.00%     70.26% # Class of committed instruction
system.cpu.op_class_0::SimdMultAcc                  0      0.00%     70.26% # Class of committed instruction
system.cpu.op_class_0::SimdShift                    0      0.00%     70.26% # Class of committed instruction
system.cpu.op_class_0::SimdShiftAcc                 0      0.00%     70.26% # Class of committed instruction
system.cpu.op_class_0::SimdDiv                      0      0.00%     70.26% # Class of committed instruction
system.cpu.op_class_0::SimdSqrt                     0      0.00%     70.26% # Class of committed instruction
system.cpu.op_class_0::SimdFloatAdd                 0      0.00%     70.26% # Class of committed instruction
system.cpu.op_class_0::SimdFloatAlu                 0      0.00%     70.26% # Class of committed instruction
system.cpu.op_class_0::SimdFloatCmp                 0      0.00%     70.26% # Class of committed instruction
system.cpu.op_class_0::SimdFloatCvt                 0      0.00%     70.26% # Class of committed instruction
system.cpu.op_class_0::SimdFloatDiv                 0      0.00%     70.26% # Class of committed instruction
system.cpu.op_class_0::SimdFloatMisc               21      0.16%     70.42% # Class of committed instruction
system.cpu.op_class_0::SimdFloatMult                0      0.00%     70.42% # Class of committed instruction
system.cpu.op_class_0::SimdFloatMultAcc             0      0.00%     70.42% # Class of committed instruction
system.cpu.op_class_0::SimdFloatSqrt                0      0.00%     70.42% # Class of committed instruction
system.cpu.op_class_0::SimdReduceAdd                0      0.00%     70.42% # Class of committed instruction
system.cpu.op_class_0::SimdReduceAlu                0      0.00%     70.42% # Class of committed instruction
system.cpu.op_class_0::SimdReduceCmp                0      0.00%     70.42% # Class of committed instruction
system.cpu.op_class_0::SimdFloatReduceAdd            0      0.00%     70.42% # Class of committed instruction
system.cpu.op_class_0::SimdFloatReduceCmp            0      0.00%     70.42% # Class of committed instruction
system.cpu.op_class_0::SimdAes                      0      0.00%     70.42% # Class of committed instruction
system.cpu.op_class_0::SimdAesMix                   0      0.00%     70.42% # Class of committed instruction
system.cpu.op_class_0::SimdSha1Hash                 0      0.00%     70.42% # Class of committed instruction
system.cpu.op_class_0::SimdSha1Hash2                0      0.00%     70.42% # Class of committed instruction
system.cpu.op_class_0::SimdSha256Hash               0      0.00%     70.42% # Class of committed instruction
system.cpu.op_class_0::SimdSha256Hash2              0      0.00%     70.42% # Class of committed instruction
system.cpu.op_class_0::SimdShaSigma2                0      0.00%     70.42% # Class of committed instruction
system.cpu.op_class_0::SimdShaSigma3                0      0.00%     70.42% # Class of committed instruction
system.cpu.op_class_0::SimdPredAlu                  0      0.00%     70.42% # Class of committed instruction
system.cpu.op_class_0::MemRead                   2001     15.17%     85.59% # Class of committed instruction
system.cpu.op_class_0::MemWrite                  1901     14.41%    100.00% # Class of committed instruction
system.cpu.op_class_0::FloatMemRead                 0      0.00%    100.00% # Class of committed instruction
system.cpu.op_class_0::FloatMemWrite                0      0.00%    100.00% # Class of committed instruction
system.cpu.op_class_0::IprAccess                    0      0.00%    100.00% # Class of committed instruction
system.cpu.op_class_0::InstPrefetch                 0      0.00%    100.00% # Class of committed instruction
system.cpu.op_class_0::total                    13191                       # Class of committed instruction
system.cpu.tickCycles                           20514                       # Number of cycles that the object actually ticked
system.cpu.workload.numSyscalls                    11                       # Number of system calls
system.membus.snoop_filter.hit_multi_requests            0                       # Number of requests hitting in the snoop filter with multiple (>1) holders of the requested data.
system.membus.snoop_filter.hit_multi_snoops            0                       # Number of snoops hitting in the snoop filter with multiple (>1) holders of the requested data.
system.membus.snoop_filter.hit_single_requests           96                       # Number of requests hitting in the snoop filter with a single holder of the requested data.
system.membus.snoop_filter.hit_single_snoops            0                       # Number of snoops hitting in the snoop filter with a single holder of the requested data.
system.membus.snoop_filter.tot_requests           668                       # Total number of requests made to the snoop filter.
system.membus.snoop_filter.tot_snoops               0                       # Total number of snoops made to the snoop filter.
system.tol2bus.snoop_filter.hit_multi_requests            8                       # Number of requests hitting in the snoop filter with multiple (>1) holders of the requested data.
system.tol2bus.snoop_filter.hit_multi_snoops           21                       # Number of snoops hitting in the snoop filter with multiple (>1) holders of the requested data.
system.tol2bus.snoop_filter.hit_single_requests          128                       # Number of requests hitting in the snoop filter with a single holder of the requested data.
system.tol2bus.snoop_filter.hit_single_snoops          502                       # Number of snoops hitting in the snoop filter with a single holder of the requested data.
system.tol2bus.snoop_filter.tot_requests          714                       # Total number of requests made to the snoop filter.
system.tol2bus.snoop_filter.tot_snoops            523                       # Total number of snoops made to the snoop filter.
system.membus.pwrStateResidencyTicks::UNDEFINED     64627000                       # Cumulative time (in ticks) in various power states
system.membus.trans_dist::ReadResp                503                       # Transaction distribution
system.membus.trans_dist::CleanEvict               90                       # Transaction distribution
system.membus.trans_dist::ReadExReq                75                       # Transaction distribution
system.membus.trans_dist::ReadExResp               75                       # Transaction distribution
system.membus.trans_dist::ReadSharedReq           503                       # Transaction distribution
system.membus.pkt_count_system.l2.mem_side::system.mem_ctrls.port         1246                       # Packet count per connected master and slave (bytes)
system.membus.pkt_count::total                   1246                       # Packet count per connected master and slave (bytes)
system.membus.pkt_size_system.l2.mem_side::system.mem_ctrls.port        36992                       # Cumulative packet size per connected master and slave (bytes)
system.membus.pkt_size::total                   36992                       # Cumulative packet size per connected master and slave (bytes)
system.membus.snoops                                0                       # Total snoops (count)
system.membus.snoopTraffic                          0                       # Total snoop traffic (bytes)
system.membus.snoop_fanout::samples               578                       # Request fanout histogram
system.membus.snoop_fanout::mean                    0                       # Request fanout histogram
system.membus.snoop_fanout::stdev                   0                       # Request fanout histogram
system.membus.snoop_fanout::underflows              0      0.00%      0.00% # Request fanout histogram
system.membus.snoop_fanout::0                     578    100.00%    100.00% # Request fanout histogram
system.membus.snoop_fanout::1                       0      0.00%    100.00% # Request fanout histogram
system.membus.snoop_fanout::overflows               0      0.00%    100.00% # Request fanout histogram
system.membus.snoop_fanout::min_value               0                       # Request fanout histogram
system.membus.snoop_fanout::max_value               0                       # Request fanout histogram
system.membus.snoop_fanout::total                 578                       # Request fanout histogram
system.membus.respLayer1.occupancy            3081250                       # Layer occupancy (ticks)
system.membus.respLayer1.utilization              4.8                       # Layer utilization (%)
system.membus.reqLayer0.occupancy              668000                       # Layer occupancy (ticks)
system.membus.reqLayer0.utilization               1.0                       # Layer utilization (%)
system.tol2bus.pwrStateResidencyTicks::UNDEFINED     64627000                       # Cumulative time (in ticks) in various power states
system.tol2bus.trans_dist::ReadResp               528                       # Transaction distribution
system.tol2bus.trans_dist::WritebackClean          107                       # Transaction distribution
system.tol2bus.trans_dist::CleanEvict             613                       # Transaction distribution
system.tol2bus.trans_dist::ReadExReq               75                       # Transaction distribution
system.tol2bus.trans_dist::ReadExResp              75                       # Transaction distribution
system.tol2bus.trans_dist::ReadCleanReq           410                       # Transaction distribution
system.tol2bus.trans_dist::ReadSharedReq          118                       # Transaction distribution
system.tol2bus.pkt_count_system.cpu.icache.mem_side::system.l2.cpu_side          927                       # Packet count per connected master and slave (bytes)
system.tol2bus.pkt_count_system.cpu.dcache.mem_side::system.l2.cpu_side          390                       # Packet count per connected master and slave (bytes)
system.tol2bus.pkt_count::total                  1317                       # Packet count per connected master and slave (bytes)
system.tol2bus.pkt_size_system.cpu.icache.mem_side::system.l2.cpu_side        33088                       # Cumulative packet size per connected master and slave (bytes)
system.tol2bus.pkt_size_system.cpu.dcache.mem_side::system.l2.cpu_side        12352                       # Cumulative packet size per connected master and slave (bytes)
system.tol2bus.pkt_size::total                  45440                       # Cumulative packet size per connected master and slave (bytes)
system.tol2bus.snoops                             609                       # Total snoops (count)
system.tol2bus.snoopTraffic                         0                       # Total snoop traffic (bytes)
system.tol2bus.snoop_fanout::samples             1212                       # Request fanout histogram
system.tol2bus.snoop_fanout::mean            0.469472                       # Request fanout histogram
system.tol2bus.snoop_fanout::stdev           0.532875                       # Request fanout histogram
system.tol2bus.snoop_fanout::underflows             0      0.00%      0.00% # Request fanout histogram
system.tol2bus.snoop_fanout::0                    664     54.79%     54.79% # Request fanout histogram
system.tol2bus.snoop_fanout::1                    527     43.48%     98.27% # Request fanout histogram
system.tol2bus.snoop_fanout::2                     21      1.73%    100.00% # Request fanout histogram
system.tol2bus.snoop_fanout::overflows              0      0.00%    100.00% # Request fanout histogram
system.tol2bus.snoop_fanout::min_value              0                       # Request fanout histogram
system.tol2bus.snoop_fanout::max_value              2                       # Request fanout histogram
system.tol2bus.snoop_fanout::total               1212                       # Request fanout histogram
system.tol2bus.reqLayer0.occupancy             928000                       # Layer occupancy (ticks)
system.tol2bus.reqLayer0.utilization              1.4                       # Layer utilization (%)
system.tol2bus.respLayer1.occupancy            580998                       # Layer occupancy (ticks)
system.tol2bus.respLayer1.utilization             0.9                       # Layer utilization (%)
system.tol2bus.respLayer0.occupancy           1230999                       # Layer occupancy (ticks)
system.tol2bus.respLayer0.utilization             1.9                       # Layer utilization (%)
system.voltage_domain.voltage                       1                       # Voltage in Volts
system.clk_domain.clock                          1000                       # Clock period in ticks
system.l2.pwrStateResidencyTicks::UNDEFINED     64627000                       # Cumulative time (in ticks) in various power states
system.l2.demand_hits::.cpu.inst                   12                       # number of demand (read+write) hits
system.l2.demand_hits::.cpu.data                   10                       # number of demand (read+write) hits
system.l2.demand_hits::total                       22                       # number of demand (read+write) hits
system.l2.overall_hits::.cpu.inst                  12                       # number of overall hits
system.l2.overall_hits::.cpu.data                  10                       # number of overall hits
system.l2.overall_hits::total                      22                       # number of overall hits
system.l2.demand_misses::.cpu.inst                398                       # number of demand (read+write) misses
system.l2.demand_misses::.cpu.data                183                       # number of demand (read+write) misses
system.l2.demand_misses::total                    581                       # number of demand (read+write) misses
system.l2.overall_misses::.cpu.inst               398                       # number of overall misses
system.l2.overall_misses::.cpu.data               183                       # number of overall misses
system.l2.overall_misses::total                   581                       # number of overall misses
system.l2.demand_miss_latency::.cpu.inst     39116000                       # number of demand (read+write) miss cycles
system.l2.demand_miss_latency::.cpu.data     18466000                       # number of demand (read+write) miss cycles
system.l2.demand_miss_latency::total         57582000                       # number of demand (read+write) miss cycles
system.l2.overall_miss_latency::.cpu.inst     39116000                       # number of overall miss cycles
system.l2.overall_miss_latency::.cpu.data     18466000                       # number of overall miss cycles
system.l2.overall_miss_latency::total        57582000                       # number of overall miss cycles
system.l2.demand_accesses::.cpu.inst              410                       # number of demand (read+write) accesses
system.l2.demand_accesses::.cpu.data              193                       # number of demand (read+write) accesses
system.l2.demand_accesses::total                  603                       # number of demand (read+write) accesses
system.l2.overall_accesses::.cpu.inst             410                       # number of overall (read+write) accesses
system.l2.overall_accesses::.cpu.data             193                       # number of overall (read+write) accesses
system.l2.overall_accesses::total                 603                       # number of overall (read+write) accesses
system.l2.demand_miss_rate::.cpu.inst        0.970732                       # miss rate for demand accesses
system.l2.demand_miss_rate::.cpu.data        0.948187                       # miss rate for demand accesses
system.l2.demand_miss_rate::total            0.963516                       # miss rate for demand accesses
system.l2.overall_miss_rate::.cpu.inst       0.970732                       # miss rate for overall accesses
system.l2.overall_miss_rate::.cpu.data       0.948187                       # miss rate for overall accesses
system.l2.overall_miss_rate::total           0.963516                       # miss rate for overall accesses
system.l2.demand_avg_miss_latency::.cpu.inst 98281.407035                       # average overall miss latency
system.l2.demand_avg_miss_latency::.cpu.data 100907.103825                       # average overall miss latency
system.l2.demand_avg_miss_latency::total 99108.433735                       # average overall miss latency
system.l2.overall_avg_miss_latency::.cpu.inst 98281.407035                       # average overall miss latency
system.l2.overall_avg_miss_latency::.cpu.data 100907.103825                       # average overall miss latency
system.l2.overall_avg_miss_latency::total 99108.433735                       # average overall miss latency
system.l2.blocked_cycles::no_mshrs                  0                       # number of cycles access was blocked
system.l2.blocked_cycles::no_targets                0                       # number of cycles access was blocked
system.l2.blocked::no_mshrs                         0                       # number of cycles access was blocked
system.l2.blocked::no_targets                       0                       # number of cycles access was blocked
system.l2.avg_blocked_cycles::no_mshrs            nan                       # average number of cycles each access was blocked
system.l2.avg_blocked_cycles::no_targets          nan                       # average number of cycles each access was blocked
system.l2.demand_mshr_hits::.cpu.inst               1                       # number of demand (read+write) MSHR hits
system.l2.demand_mshr_hits::.cpu.data               2                       # number of demand (read+write) MSHR hits
system.l2.demand_mshr_hits::total                   3                       # number of demand (read+write) MSHR hits
system.l2.overall_mshr_hits::.cpu.inst              1                       # number of overall MSHR hits
system.l2.overall_mshr_hits::.cpu.data              2                       # number of overall MSHR hits
system.l2.overall_mshr_hits::total                  3                       # number of overall MSHR hits
system.l2.demand_mshr_misses::.cpu.inst           397                       # number of demand (read+write) MSHR misses
system.l2.demand_mshr_misses::.cpu.data           181                       # number of demand (read+write) MSHR misses
system.l2.demand_mshr_misses::total               578                       # number of demand (read+write) MSHR misses
system.l2.overall_mshr_misses::.cpu.inst          397                       # number of overall MSHR misses
system.l2.overall_mshr_misses::.cpu.data          181                       # number of overall MSHR misses
system.l2.overall_mshr_misses::total              578                       # number of overall MSHR misses
system.l2.demand_mshr_miss_latency::.cpu.inst     31073000                       # number of demand (read+write) MSHR miss cycles
system.l2.demand_mshr_miss_latency::.cpu.data     14674000                       # number of demand (read+write) MSHR miss cycles
system.l2.demand_mshr_miss_latency::total     45747000                       # number of demand (read+write) MSHR miss cycles
system.l2.overall_mshr_miss_latency::.cpu.inst     31073000                       # number of overall MSHR miss cycles
system.l2.overall_mshr_miss_latency::.cpu.data     14674000                       # number of overall MSHR miss cycles
system.l2.overall_mshr_miss_latency::total     45747000                       # number of overall MSHR miss cycles
system.l2.demand_mshr_miss_rate::.cpu.inst     0.968293                       # mshr miss rate for demand accesses
system.l2.demand_mshr_miss_rate::.cpu.data     0.937824                       # mshr miss rate for demand accesses
system.l2.demand_mshr_miss_rate::total       0.958541                       # mshr miss rate for demand accesses
system.l2.overall_mshr_miss_rate::.cpu.inst     0.968293                       # mshr miss rate for overall accesses
system.l2.overall_mshr_miss_rate::.cpu.data     0.937824                       # mshr miss rate for overall accesses
system.l2.overall_mshr_miss_rate::total      0.958541                       # mshr miss rate for overall accesses
system.l2.demand_avg_mshr_miss_latency::.cpu.inst 78269.521411                       # average overall mshr miss latency
system.l2.demand_avg_mshr_miss_latency::.cpu.data 81071.823204                       # average overall mshr miss latency
system.l2.demand_avg_mshr_miss_latency::total 79147.058824                       # average overall mshr miss latency
system.l2.overall_avg_mshr_miss_latency::.cpu.inst 78269.521411                       # average overall mshr miss latency
system.l2.overall_avg_mshr_miss_latency::.cpu.data 81071.823204                       # average overall mshr miss latency
system.l2.overall_avg_mshr_miss_latency::total 79147.058824                       # average overall mshr miss latency
system.l2.replacements                            609                       # number of replacements
system.l2.WritebackClean_hits::.writebacks           99                       # number of WritebackClean hits
system.l2.WritebackClean_hits::total               99                       # number of WritebackClean hits
system.l2.WritebackClean_accesses::.writebacks           99                       # number of WritebackClean accesses(hits+misses)
system.l2.WritebackClean_accesses::total           99                       # number of WritebackClean accesses(hits+misses)
system.l2.CleanEvict_mshr_misses::.writebacks            4                       # number of CleanEvict MSHR misses
system.l2.CleanEvict_mshr_misses::total             4                       # number of CleanEvict MSHR misses
system.l2.CleanEvict_mshr_miss_rate::.writebacks          inf                       # mshr miss rate for CleanEvict accesses
system.l2.CleanEvict_mshr_miss_rate::total          inf                       # mshr miss rate for CleanEvict accesses
system.l2.ReadExReq_misses::.cpu.data              75                       # number of ReadExReq misses
system.l2.ReadExReq_misses::total                  75                       # number of ReadExReq misses
system.l2.ReadExReq_miss_latency::.cpu.data      7534000                       # number of ReadExReq miss cycles
system.l2.ReadExReq_miss_latency::total       7534000                       # number of ReadExReq miss cycles
system.l2.ReadExReq_accesses::.cpu.data            75                       # number of ReadExReq accesses(hits+misses)
system.l2.ReadExReq_accesses::total                75                       # number of ReadExReq accesses(hits+misses)
system.l2.ReadExReq_miss_rate::.cpu.data            1                       # miss rate for ReadExReq accesses
system.l2.ReadExReq_miss_rate::total                1                       # miss rate for ReadExReq accesses
system.l2.ReadExReq_avg_miss_latency::.cpu.data 100453.333333                       # average ReadExReq miss latency
system.l2.ReadExReq_avg_miss_latency::total 100453.333333                       # average ReadExReq miss latency
system.l2.ReadExReq_mshr_misses::.cpu.data           75                       # number of ReadExReq MSHR misses
system.l2.ReadExReq_mshr_misses::total             75                       # number of ReadExReq MSHR misses
system.l2.ReadExReq_mshr_miss_latency::.cpu.data      6034000                       # number of ReadExReq MSHR miss cycles
system.l2.ReadExReq_mshr_miss_latency::total      6034000                       # number of ReadExReq MSHR miss cycles
system.l2.ReadExReq_mshr_miss_rate::.cpu.data            1                       # mshr miss rate for ReadExReq accesses
system.l2.ReadExReq_mshr_miss_rate::total            1                       # mshr miss rate for ReadExReq accesses
system.l2.ReadExReq_avg_mshr_miss_latency::.cpu.data 80453.333333                       # average ReadExReq mshr miss latency
system.l2.ReadExReq_avg_mshr_miss_latency::total 80453.333333                       # average ReadExReq mshr miss latency
system.l2.ReadCleanReq_hits::.cpu.inst             12                       # number of ReadCleanReq hits
system.l2.ReadCleanReq_hits::total                 12                       # number of ReadCleanReq hits
system.l2.ReadCleanReq_misses::.cpu.inst          398                       # number of ReadCleanReq misses
system.l2.ReadCleanReq_misses::total              398                       # number of ReadCleanReq misses
system.l2.ReadCleanReq_miss_latency::.cpu.inst     39116000                       # number of ReadCleanReq miss cycles
system.l2.ReadCleanReq_miss_latency::total     39116000                       # number of ReadCleanReq miss cycles
system.l2.ReadCleanReq_accesses::.cpu.inst          410                       # number of ReadCleanReq accesses(hits+misses)
system.l2.ReadCleanReq_accesses::total            410                       # number of ReadCleanReq accesses(hits+misses)
system.l2.ReadCleanReq_miss_rate::.cpu.inst     0.970732                       # miss rate for ReadCleanReq accesses
system.l2.ReadCleanReq_miss_rate::total      0.970732                       # miss rate for ReadCleanReq accesses
system.l2.ReadCleanReq_avg_miss_latency::.cpu.inst 98281.407035                       # average ReadCleanReq miss latency
system.l2.ReadCleanReq_avg_miss_latency::total 98281.407035                       # average ReadCleanReq miss latency
system.l2.ReadCleanReq_mshr_hits::.cpu.inst            1                       # number of ReadCleanReq MSHR hits
system.l2.ReadCleanReq_mshr_hits::total             1                       # number of ReadCleanReq MSHR hits
system.l2.ReadCleanReq_mshr_misses::.cpu.inst          397                       # number of ReadCleanReq MSHR misses
system.l2.ReadCleanReq_mshr_misses::total          397                       # number of ReadCleanReq MSHR misses
system.l2.ReadCleanReq_mshr_miss_latency::.cpu.inst     31073000                       # number of ReadCleanReq MSHR miss cycles
system.l2.ReadCleanReq_mshr_miss_latency::total     31073000                       # number of ReadCleanReq MSHR miss cycles
system.l2.ReadCleanReq_mshr_miss_rate::.cpu.inst     0.968293                       # mshr miss rate for ReadCleanReq accesses
system.l2.ReadCleanReq_mshr_miss_rate::total     0.968293                       # mshr miss rate for ReadCleanReq accesses
system.l2.ReadCleanReq_avg_mshr_miss_latency::.cpu.inst 78269.521411                       # average ReadCleanReq mshr miss latency
system.l2.ReadCleanReq_avg_mshr_miss_latency::total 78269.521411                       # average ReadCleanReq mshr miss latency
system.l2.ReadSharedReq_hits::.cpu.data            10                       # number of ReadSharedReq hits
system.l2.ReadSharedReq_hits::total                10                       # number of ReadSharedReq hits
system.l2.ReadSharedReq_misses::.cpu.data          108                       # number of ReadSharedReq misses
system.l2.ReadSharedReq_misses::total             108                       # number of ReadSharedReq misses
system.l2.ReadSharedReq_miss_latency::.cpu.data     10932000                       # number of ReadSharedReq miss cycles
system.l2.ReadSharedReq_miss_latency::total     10932000                       # number of ReadSharedReq miss cycles
system.l2.ReadSharedReq_accesses::.cpu.data          118                       # number of ReadSharedReq accesses(hits+misses)
system.l2.ReadSharedReq_accesses::total           118                       # number of ReadSharedReq accesses(hits+misses)
system.l2.ReadSharedReq_miss_rate::.cpu.data     0.915254                       # miss rate for ReadSharedReq accesses
system.l2.ReadSharedReq_miss_rate::total     0.915254                       # miss rate for ReadSharedReq accesses
system.l2.ReadSharedReq_avg_miss_latency::.cpu.data 101222.222222                       # average ReadSharedReq miss latency
system.l2.ReadSharedReq_avg_miss_latency::total 101222.222222                       # average ReadSharedReq miss latency
system.l2.ReadSharedReq_mshr_hits::.cpu.data            2                       # number of ReadSharedReq MSHR hits
system.l2.ReadSharedReq_mshr_hits::total            2                       # number of ReadSharedReq MSHR hits
system.l2.ReadSharedReq_mshr_misses::.cpu.data          106                       # number of ReadSharedReq MSHR misses
system.l2.ReadSharedReq_mshr_misses::total          106                       # number of ReadSharedReq MSHR misses
system.l2.ReadSharedReq_mshr_miss_latency::.cpu.data      8640000                       # number of ReadSharedReq MSHR miss cycles
system.l2.ReadSharedReq_mshr_miss_latency::total      8640000                       # number of ReadSharedReq MSHR miss cycles
system.l2.ReadSharedReq_mshr_miss_rate::.cpu.data     0.898305                       # mshr miss rate for ReadSharedReq accesses
system.l2.ReadSharedReq_mshr_miss_rate::total     0.898305                       # mshr miss rate for ReadSharedReq accesses
system.l2.ReadSharedReq_avg_mshr_miss_latency::.cpu.data 81509.433962                       # average ReadSharedReq mshr miss latency
system.l2.ReadSharedReq_avg_mshr_miss_latency::total 81509.433962                       # average ReadSharedReq mshr miss latency
system.l2.tags.pwrStateResidencyTicks::UNDEFINED     64627000                       # Cumulative time (in ticks) in various power states
system.l2.tags.tagsinuse                    61.199886                       # Cycle average of tags in use
system.l2.tags.total_refs                         699                       # Total number of references to valid blocks.
system.l2.tags.sampled_refs                       673                       # Sample count of references to valid blocks.
system.l2.tags.avg_refs                      1.038633                       # Average number of references to valid blocks.
system.l2.tags.warmup_cycle                     87000                       # Cycle when the warmup percentage was hit.
system.l2.tags.occ_blocks::.writebacks       8.968604                       # Average occupied blocks per requestor
system.l2.tags.occ_blocks::.cpu.inst        35.857985                       # Average occupied blocks per requestor
system.l2.tags.occ_blocks::.cpu.data        16.373296                       # Average occupied blocks per requestor
system.l2.tags.occ_percent::.writebacks      0.140134                       # Average percentage of cache occupancy
system.l2.tags.occ_percent::.cpu.inst        0.560281                       # Average percentage of cache occupancy
system.l2.tags.occ_percent::.cpu.data        0.255833                       # Average percentage of cache occupancy
system.l2.tags.occ_percent::total            0.956248                       # Average percentage of cache occupancy
system.l2.tags.occ_task_id_blocks::1024            64                       # Occupied blocks per task id
system.l2.tags.age_task_id_blocks_1024::0           64                       # Occupied blocks per task id
system.l2.tags.occ_task_id_percent::1024            1                       # Percentage of cache occupancy per task id
system.l2.tags.tag_accesses                      6321                       # Number of tag accesses
system.l2.tags.data_accesses                     6321                       # Number of data accesses
system.cpu_voltage_domain.voltage                   1                       # Voltage in Volts
system.mem_ctrls.pwrStateResidencyTicks::UNDEFINED     64627000                       # Cumulative time (in ticks) in various power states
system.mem_ctrls.bytes_read::.cpu.inst          25408                       # Number of bytes read from this memory
system.mem_ctrls.bytes_read::.cpu.data          11584                       # Number of bytes read from this memory
system.mem_ctrls.bytes_read::total              36992                       # Number of bytes read from this memory
system.mem_ctrls.bytes_inst_read::.cpu.inst        25408                       # Number of instructions bytes read from this memory
system.mem_ctrls.bytes_inst_read::total         25408                       # Number of instructions bytes read from this memory
system.mem_ctrls.num_reads::.cpu.inst             397                       # Number of read requests responded to by this memory
system.mem_ctrls.num_reads::.cpu.data             181                       # Number of read requests responded to by this memory
system.mem_ctrls.num_reads::total                 578                       # Number of read requests responded to by this memory
system.mem_ctrls.bw_read::.cpu.inst         393148375                       # Total read bandwidth from this memory (bytes/s)
system.mem_ctrls.bw_read::.cpu.data         179243969                       # Total read bandwidth from this memory (bytes/s)
system.mem_ctrls.bw_read::total             572392344                       # Total read bandwidth from this memory (bytes/s)
system.mem_ctrls.bw_inst_read::.cpu.inst    393148375                       # Instruction read bandwidth from this memory (bytes/s)
system.mem_ctrls.bw_inst_read::total        393148375                       # Instruction read bandwidth from this memory (bytes/s)
system.mem_ctrls.bw_total::.cpu.inst        393148375                       # Total bandwidth to/from this memory (bytes/s)
system.mem_ctrls.bw_total::.cpu.data        179243969                       # Total bandwidth to/from this memory (bytes/s)
system.mem_ctrls.bw_total::total            572392344                       # Total bandwidth to/from this memory (bytes/s)
system.mem_ctrls.avgPriority_.cpu.inst::samples       397.00                       # Average QoS priority value for accepted requests
system.mem_ctrls.avgPriority_.cpu.data::samples       181.00                       # Average QoS priority value for accepted requests
system.mem_ctrls.priorityMinLatency      0.000000018750                       # per QoS priority minimum request to response latency (s)
system.mem_ctrls.priorityMaxLatency      0.000000572500                       # per QoS priority maximum request to response latency (s)
system.mem_ctrls.numReadWriteTurnArounds            0                       # Number of turnarounds from READ to WRITE
system.mem_ctrls.numWriteReadTurnArounds            0                       # Number of turnarounds from WRITE to READ
system.mem_ctrls.numStayReadState                1167                       # Number of times bus staying in READ state
system.mem_ctrls.numStayWriteState                  0                       # Number of times bus staying in WRITE state
system.mem_ctrls.readReqs                         578                       # Number of read requests accepted
system.mem_ctrls.writeReqs                          0                       # Number of write requests accepted
system.mem_ctrls.readBursts                       578                       # Number of DRAM read bursts, including those serviced by the write queue
system.mem_ctrls.writeBursts                        0                       # Number of DRAM write bursts, including those merged in the write queue
system.mem_ctrls.servicedByWrQ                      0                       # Number of DRAM read bursts serviced by the write queue
system.mem_ctrls.mergedWrBursts                     0                       # Number of DRAM write bursts merged with an existing one
system.mem_ctrls.neitherReadNorWriteReqs            0                       # Number of requests that are neither read nor write
system.mem_ctrls.perBankRdBursts::0               133                       # Per bank write bursts
system.mem_ctrls.perBankRdBursts::1                32                       # Per bank write bursts
system.mem_ctrls.perBankRdBursts::2                59                       # Per bank write bursts
system.mem_ctrls.perBankRdBursts::3                13                       # Per bank write bursts
system.mem_ctrls.perBankRdBursts::4                43                       # Per bank write bursts
system.mem_ctrls.perBankRdBursts::5                17                       # Per bank write bursts
system.mem_ctrls.perBankRdBursts::6                 2                       # Per bank write bursts
system.mem_ctrls.perBankRdBursts::7                21                       # Per bank write bursts
system.mem_ctrls.perBankRdBursts::8                 8                       # Per bank write bursts
system.mem_ctrls.perBankRdBursts::9                 3                       # Per bank write bursts
system.mem_ctrls.perBankRdBursts::10               26                       # Per bank write bursts
system.mem_ctrls.perBankRdBursts::11               45                       # Per bank write bursts
system.mem_ctrls.perBankRdBursts::12               74                       # Per bank write bursts
system.mem_ctrls.perBankRdBursts::13               23                       # Per bank write bursts
system.mem_ctrls.perBankRdBursts::14               23                       # Per bank write bursts
system.mem_ctrls.perBankRdBursts::15               56                       # Per bank write bursts
system.mem_ctrls.perBankWrBursts::0                 0                       # Per bank write bursts
system.mem_ctrls.perBankWrBursts::1                 0                       # Per bank write bursts
system.mem_ctrls.perBankWrBursts::2                 0                       # Per bank write bursts
system.mem_ctrls.perBankWrBursts::3                 0                       # Per bank write bursts
system.mem_ctrls.perBankWrBursts::4                 0                       # Per bank write bursts
system.mem_ctrls.perBankWrBursts::5                 0                       # Per bank write bursts
system.mem_ctrls.perBankWrBursts::6                 0                       # Per bank write bursts
system.mem_ctrls.perBankWrBursts::7                 0                       # Per bank write bursts
system.mem_ctrls.perBankWrBursts::8                 0                       # Per bank write bursts
system.mem_ctrls.perBankWrBursts::9                 0                       # Per bank write bursts
system.mem_ctrls.perBankWrBursts::10                0                       # Per bank write bursts
system.mem_ctrls.perBankWrBursts::11                0                       # Per bank write bursts
system.mem_ctrls.perBankWrBursts::12                0                       # Per bank write bursts
system.mem_ctrls.perBankWrBursts::13                0                       # Per bank write bursts
system.mem_ctrls.perBankWrBursts::14                0                       # Per bank write bursts
system.mem_ctrls.perBankWrBursts::15                0                       # Per bank write bursts
system.mem_ctrls.avgRdQLen                       1.15                       # Average read queue length when enqueuing
system.mem_ctrls.avgWrQLen                       0.00                       # Average write queue length when enqueuing
system.mem_ctrls.totQLat                      5219750                       # Total ticks spent queuing
system.mem_ctrls.totBusLat                    2890000                       # Total ticks spent in databus transfers
system.mem_ctrls.totMemAccLat                16057250                       # Total ticks spent from burst creation until serviced by the DRAM
system.mem_ctrls.avgQLat                      9030.71                       # Average queueing delay per DRAM burst
system.mem_ctrls.avgBusLat                    5000.00                       # Average bus latency per DRAM burst
system.mem_ctrls.avgMemAccLat                27780.71                       # Average memory access latency per DRAM burst
system.mem_ctrls.numRdRetry                         0                       # Number of times read queue was full causing retry
system.mem_ctrls.numWrRetry                         0                       # Number of times write queue was full causing retry
system.mem_ctrls.readRowHits                      434                       # Number of row buffer hits during reads
system.mem_ctrls.writeRowHits                       0                       # Number of row buffer hits during writes
system.mem_ctrls.readRowHitRate                 75.09                       # Row buffer hit rate for reads
system.mem_ctrls.writeRowHitRate                  nan                       # Row buffer hit rate for writes
system.mem_ctrls.readPktSize::0                     0                       # Read request sizes (log2)
system.mem_ctrls.readPktSize::1                     0                       # Read request sizes (log2)
system.mem_ctrls.readPktSize::2                     0                       # Read request sizes (log2)
system.mem_ctrls.readPktSize::3                     0                       # Read request sizes (log2)
system.mem_ctrls.readPktSize::4                     0                       # Read request sizes (log2)
system.mem_ctrls.readPktSize::5                     0                       # Read request sizes (log2)
system.mem_ctrls.readPktSize::6                   578                       # Read request sizes (log2)
system.mem_ctrls.writePktSize::0                    0                       # Write request sizes (log2)
system.mem_ctrls.writePktSize::1                    0                       # Write request sizes (log2)
system.mem_ctrls.writePktSize::2                    0                       # Write request sizes (log2)
system.mem_ctrls.writePktSize::3                    0                       # Write request sizes (log2)
system.mem_ctrls.writePktSize::4                    0                       # Write request sizes (log2)
system.mem_ctrls.writePktSize::5                    0                       # Write request sizes (log2)
system.mem_ctrls.writePktSize::6                    0                       # Write request sizes (log2)
system.mem_ctrls.rdQLenPdf::0                     496                       # What read queue length does an incoming req see
system.mem_ctrls.rdQLenPdf::1                      77                       # What read queue length does an incoming req see
system.mem_ctrls.rdQLenPdf::2                       5                       # What read queue length does an incoming req see
system.mem_ctrls.rdQLenPdf::3                       0                       # What read queue length does an incoming req see
system.mem_ctrls.rdQLenPdf::4                       0                       # What read queue length does an incoming req see
system.mem_ctrls.rdQLenPdf::5                       0                       # What read queue length does an incoming req see
system.mem_ctrls.rdQLenPdf::6                       0                       # What read queue length does an incoming req see
system.mem_ctrls.rdQLenPdf::7                       0                       # What read queue length does an incoming req see
system.mem_ctrls.rdQLenPdf::8                       0                       # What read queue length does an incoming req see
system.mem_ctrls.rdQLenPdf::9                       0                       # What read queue length does an incoming req see
system.mem_ctrls.rdQLenPdf::10                      0                       # What read queue length does an incoming req see
system.mem_ctrls.rdQLenPdf::11                      0                       # What read queue length does an incoming req see
system.mem_ctrls.rdQLenPdf::12                      0                       # What read queue length does an incoming req see
system.mem_ctrls.rdQLenPdf::13                      0                       # What read queue length does an incoming req see
system.mem_ctrls.rdQLenPdf::14                      0                       # What read queue length does an incoming req see
system.mem_ctrls.rdQLenPdf::15                      0                       # What read queue length does an incoming req see
system.mem_ctrls.rdQLenPdf::16                      0                       # What read queue length does an incoming req see
system.mem_ctrls.rdQLenPdf::17                      0                       # What read queue length does an incoming req see
system.mem_ctrls.rdQLenPdf::18                      0                       # What read queue length does an incoming req see
system.mem_ctrls.rdQLenPdf::19                      0                       # What read queue length does an incoming req see
system.mem_ctrls.rdQLenPdf::20                      0                       # What read queue length does an incoming req see
system.mem_ctrls.rdQLenPdf::21                      0                       # What read queue length does an incoming req see
system.mem_ctrls.rdQLenPdf::22                      0                       # What read queue length does an incoming req see
system.mem_ctrls.rdQLenPdf::23                      0                       # What read queue length does an incoming req see
system.mem_ctrls.rdQLenPdf::24                      0                       # What read queue length does an incoming req see
system.mem_ctrls.rdQLenPdf::25                      0                       # What read queue length does an incoming req see
system.mem_ctrls.rdQLenPdf::26                      0                       # What read queue length does an incoming req see
system.mem_ctrls.rdQLenPdf::27                      0                       # What read queue length does an incoming req see
system.mem_ctrls.rdQLenPdf::28                      0                       # What read queue length does an incoming req see
system.mem_ctrls.rdQLenPdf::29                      0                       # What read queue length does an incoming req see
system.mem_ctrls.rdQLenPdf::30                      0                       # What read queue length does an incoming req see
system.mem_ctrls.rdQLenPdf::31                      0                       # What read queue length does an incoming req see
system.mem_ctrls.wrQLenPdf::0                       0                       # What write queue length does an incoming req see
system.mem_ctrls.wrQLenPdf::1                       0                       # What write queue length does an incoming req see
system.mem_ctrls.wrQLenPdf::2                       0                       # What write queue length does an incoming req see
system.mem_ctrls.wrQLenPdf::3                       0                       # What write queue length does an incoming req see
system.mem_ctrls.wrQLenPdf::4                       0                       # What write queue length does an incoming req see
system.mem_ctrls.wrQLenPdf::5                       0                       # What write queue length does an incoming req see
system.mem_ctrls.wrQLenPdf::6                       0                       # What write queue length does an incoming req see
system.mem_ctrls.wrQLenPdf::7                       0                       # What write queue length does an incoming req see
system.mem_ctrls.wrQLenPdf::8                       0                       # What write queue length does an incoming req see
system.mem_ctrls.wrQLenPdf::9                       0                       # What write queue length does an incoming req see
system.mem_ctrls.wrQLenPdf::10                      0                       # What write queue length does an incoming req see
system.mem_ctrls.wrQLenPdf::11                      0                       # What write queue length does an incoming req see
system.mem_ctrls.wrQLenPdf::12                      0                       # What write queue length does an incoming req see
system.mem_ctrls.wrQLenPdf::13                      0                       # What write queue length does an incoming req see
system.mem_ctrls.wrQLenPdf::14                      0                       # What write queue length does an incoming req see
system.mem_ctrls.wrQLenPdf::15                      0                       # What write queue length does an incoming req see
system.mem_ctrls.wrQLenPdf::16                      0                       # What write queue length does an incoming req see
system.mem_ctrls.wrQLenPdf::17                      0                       # What write queue length does an incoming req see
system.mem_ctrls.wrQLenPdf::18                      0                       # What write queue length does an incoming req see
system.mem_ctrls.wrQLenPdf::19                      0                       # What write queue length does an incoming req see
system.mem_ctrls.wrQLenPdf::20                      0                       # What write queue length does an incoming req see
system.mem_ctrls.wrQLenPdf::21                      0                       # What write queue length does an incoming req see
system.mem_ctrls.wrQLenPdf::22                      0                       # What write queue length does an incoming req see
system.mem_ctrls.wrQLenPdf::23                      0                       # What write queue length does an incoming req see
system.mem_ctrls.wrQLenPdf::24                      0                       # What write queue length does an incoming req see
system.mem_ctrls.wrQLenPdf::25                      0                       # What write queue length does an incoming req see
system.mem_ctrls.wrQLenPdf::26                      0                       # What write queue length does an incoming req see
system.mem_ctrls.wrQLenPdf::27                      0                       # What write queue length does an incoming req see
system.mem_ctrls.wrQLenPdf::28                      0                       # What write queue length does an incoming req see
system.mem_ctrls.wrQLenPdf::29                      0                       # What write queue length does an incoming req see
system.mem_ctrls.wrQLenPdf::30                      0                       # What write queue length does an incoming req see
system.mem_ctrls.wrQLenPdf::31                      0                       # What write queue length does an incoming req see
system.mem_ctrls.wrQLenPdf::32                      0                       # What write queue length does an incoming req see
system.mem_ctrls.wrQLenPdf::33                      0                       # What write queue length does an incoming req see
system.mem_ctrls.wrQLenPdf::34                      0                       # What write queue length does an incoming req see
system.mem_ctrls.wrQLenPdf::35                      0                       # What write queue length does an incoming req see
system.mem_ctrls.wrQLenPdf::36                      0                       # What write queue length does an incoming req see
system.mem_ctrls.wrQLenPdf::37                      0                       # What write queue length does an incoming req see
system.mem_ctrls.wrQLenPdf::38                      0                       # What write queue length does an incoming req see
system.mem_ctrls.wrQLenPdf::39                      0                       # What write queue length does an incoming req see
system.mem_ctrls.wrQLenPdf::40                      0                       # What write queue length does an incoming req see
system.mem_ctrls.wrQLenPdf::41                      0                       # What write queue length does an incoming req see
system.mem_ctrls.wrQLenPdf::42                      0                       # What write queue length does an incoming req see
system.mem_ctrls.wrQLenPdf::43                      0                       # What write queue length does an incoming req see
system.mem_ctrls.wrQLenPdf::44                      0                       # What write queue length does an incoming req see
system.mem_ctrls.wrQLenPdf::45                      0                       # What write queue length does an incoming req see
system.mem_ctrls.wrQLenPdf::46                      0                       # What write queue length does an incoming req see
system.mem_ctrls.wrQLenPdf::47                      0                       # What write queue length does an incoming req see
system.mem_ctrls.wrQLenPdf::48                      0                       # What write queue length does an incoming req see
system.mem_ctrls.wrQLenPdf::49                      0                       # What write queue length does an incoming req see
system.mem_ctrls.wrQLenPdf::50                      0                       # What write queue length does an incoming req see
system.mem_ctrls.wrQLenPdf::51                      0                       # What write queue length does an incoming req see
system.mem_ctrls.wrQLenPdf::52                      0                       # What write queue length does an incoming req see
system.mem_ctrls.wrQLenPdf::53                      0                       # What write queue length does an incoming req see
system.mem_ctrls.wrQLenPdf::54                      0                       # What write queue length does an incoming req see
system.mem_ctrls.wrQLenPdf::55                      0                       # What write queue length does an incoming req see
system.mem_ctrls.wrQLenPdf::56                      0                       # What write queue length does an incoming req see
system.mem_ctrls.wrQLenPdf::57                      0                       # What write queue length does an incoming req see
system.mem_ctrls.wrQLenPdf::58                      0                       # What write queue length does an incoming req see
system.mem_ctrls.wrQLenPdf::59                      0                       # What write queue length does an incoming req see
system.mem_ctrls.wrQLenPdf::60                      0                       # What write queue length does an incoming req see
system.mem_ctrls.wrQLenPdf::61                      0                       # What write queue length does an incoming req see
system.mem_ctrls.wrQLenPdf::62                      0                       # What write queue length does an incoming req see
system.mem_ctrls.wrQLenPdf::63                      0                       # What write queue length does an incoming req see
system.mem_ctrls.bytesPerActivate::samples          140                       # Bytes accessed per row activation
system.mem_ctrls.bytesPerActivate::mean    256.457143                       # Bytes accessed per row activation
system.mem_ctrls.bytesPerActivate::gmean   177.557204                       # Bytes accessed per row activation
system.mem_ctrls.bytesPerActivate::stdev   239.034550                       # Bytes accessed per row activation
system.mem_ctrls.bytesPerActivate::0-127           41     29.29%     29.29% # Bytes accessed per row activation
system.mem_ctrls.bytesPerActivate::128-255           49     35.00%     64.29% # Bytes accessed per row activation
system.mem_ctrls.bytesPerActivate::256-383           17     12.14%     76.43% # Bytes accessed per row activation
system.mem_ctrls.bytesPerActivate::384-511           12      8.57%     85.00% # Bytes accessed per row activation
system.mem_ctrls.bytesPerActivate::512-639            5      3.57%     88.57% # Bytes accessed per row activation
system.mem_ctrls.bytesPerActivate::640-767            7      5.00%     93.57% # Bytes accessed per row activation
system.mem_ctrls.bytesPerActivate::768-895            4      2.86%     96.43% # Bytes accessed per row activation
system.mem_ctrls.bytesPerActivate::896-1023            1      0.71%     97.14% # Bytes accessed per row activation
system.mem_ctrls.bytesPerActivate::1024-1151            4      2.86%    100.00% # Bytes accessed per row activation
system.mem_ctrls.bytesPerActivate::total          140                       # Bytes accessed per row activation
system.mem_ctrls.bytesReadDRAM                  36992                       # Total number of bytes read from DRAM
system.mem_ctrls.bytesReadWrQ                       0                       # Total number of bytes read from write queue
system.mem_ctrls.bytesWritten                       0                       # Total number of bytes written to DRAM
system.mem_ctrls.bytesReadSys                   36992                       # Total read bytes from the system interface side
system.mem_ctrls.bytesWrittenSys                    0                       # Total written bytes from the system interface side
system.mem_ctrls.avgRdBW                       572.39                       # Average DRAM read bandwidth in MiByte/s
system.mem_ctrls.avgWrBW                         0.00                       # Average achieved write bandwidth in MiByte/s
system.mem_ctrls.avgRdBWSys                    572.39                       # Average system read bandwidth in MiByte/s
system.mem_ctrls.avgWrBWSys                      0.00                       # Average system write bandwidth in MiByte/s
system.mem_ctrls.peakBW                      12800.00                       # Theoretical peak bandwidth in MiByte/s
system.mem_ctrls.busUtil                         4.47                       # Data bus utilization in percentage
system.mem_ctrls.busUtilRead                     4.47                       # Data bus utilization in percentage for reads
system.mem_ctrls.busUtilWrite                    0.00                       # Data bus utilization in percentage for writes
system.mem_ctrls.totGap                      64517000                       # Total gap between requests
system.mem_ctrls.avgGap                     111621.11                       # Average gap between requests
system.mem_ctrls.masterReadBytes::.cpu.inst        25408                       # Per-master bytes read from memory
system.mem_ctrls.masterReadBytes::.cpu.data        11584                       # Per-master bytes read from memory
system.mem_ctrls.masterReadRate::.cpu.inst 393148374.518390119076                       # Per-master bytes read from memory rate (Bytes/sec)
system.mem_ctrls.masterReadRate::.cpu.data 179243969.238862991333                       # Per-master bytes read from memory rate (Bytes/sec)
system.mem_ctrls.masterReadAccesses::.cpu.inst          397                       # Per-master read serviced memory accesses
system.mem_ctrls.masterReadAccesses::.cpu.data          181                       # Per-master read serviced memory accesses
system.mem_ctrls.masterReadTotalLat::.cpu.inst     10693000                       # Per-master read total memory access latency
system.mem_ctrls.masterReadTotalLat::.cpu.data      5364250                       # Per-master read total memory access latency
system.mem_ctrls.masterReadAvgLat::.cpu.inst     26934.51                       # Per-master read average memory access latency
system.mem_ctrls.masterReadAvgLat::.cpu.data     29636.74                       # Per-master read average memory access latency
system.mem_ctrls.pageHitRate                    75.09                       # Row buffer hit rate, read and write combined
[...]
system.cpu.icache.ReadReq_accesses::total         4513                       # number of ReadReq accesses(hits+misses)
system.cpu.icache.ReadReq_miss_rate::.cpu.inst     0.090849                       # miss rate for ReadReq accesses
system.cpu.icache.ReadReq_miss_rate::total     0.090849                       # miss rate for ReadReq accesses
system.cpu.icache.ReadReq_avg_miss_latency::.cpu.inst 101053.658537                       # average ReadReq miss latency
system.cpu.icache.ReadReq_avg_miss_latency::total 101053.658537                       # average ReadReq miss latency
system.cpu.icache.ReadReq_mshr_misses::.cpu.inst          410                       # number of ReadReq MSHR misses
system.cpu.icache.ReadReq_mshr_misses::total          410                       # number of ReadReq MSHR misses
system.cpu.icache.ReadReq_mshr_miss_latency::.cpu.inst     40612000                       # number of ReadReq MSHR miss cycles
system.cpu.icache.ReadReq_mshr_miss_latency::total     40612000                       # number of ReadReq MSHR miss cycles
system.cpu.icache.ReadReq_mshr_miss_rate::.cpu.inst     0.090849                       # mshr miss rate for ReadReq accesses
system.cpu.icache.ReadReq_mshr_miss_rate::total     0.090849                       # mshr miss rate for ReadReq accesses
system.cpu.icache.ReadReq_avg_mshr_miss_latency::.cpu.inst 99053.658537                       # average ReadReq mshr miss latency
system.cpu.icache.ReadReq_avg_mshr_miss_latency::total 99053.658537                       # average ReadReq mshr miss latency
system.cpu.icache.tags.pwrStateResidencyTicks::UNDEFINED     64627000                       # Cumulative time (in ticks) in various power states
system.cpu.icache.tags.tagsinuse           170.162736                       # Cycle average of tags in use
system.cpu.icache.tags.total_refs                4513                       # Total number of references to valid blocks.
system.cpu.icache.tags.sampled_refs               410                       # Sample count of references to valid blocks.
system.cpu.icache.tags.avg_refs             11.007317                       # Average number of references to valid blocks.
system.cpu.icache.tags.warmup_cycle            108000                       # Cycle when the warmup percentage was hit.
system.cpu.icache.tags.occ_blocks::.cpu.inst   170.162736                       # Average occupied blocks per requestor
system.cpu.icache.tags.occ_percent::.cpu.inst     0.332349                       # Average percentage of cache occupancy
system.cpu.icache.tags.occ_percent::total     0.332349                       # Average percentage of cache occupancy
system.cpu.icache.tags.occ_task_id_blocks::1024          303                       # Occupied blocks per task id
system.cpu.icache.tags.age_task_id_blocks_1024::0           69                       # Occupied blocks per task id
system.cpu.icache.tags.age_task_id_blocks_1024::1          234                       # Occupied blocks per task id
system.cpu.icache.tags.occ_task_id_percent::1024     0.591797                       # Percentage of cache occupancy per task id
system.cpu.icache.tags.tag_accesses              9436                       # Number of tag accesses
system.cpu.icache.tags.data_accesses             9436                       # Number of data accesses
system.cpu.dtb.walker.pwrStateResidencyTicks::UNDEFINED     64627000                       # Cumulative time (in ticks) in various power states
system.cpu.dtb.stage2_mmu.stage2_tlb.walker.pwrStateResidencyTicks::UNDEFINED     64627000                       # Cumulative time (in ticks) in various power states
system.cpu.dcache.pwrStateResidencyTicks::UNDEFINED     64627000                       # Cumulative time (in ticks) in various power states
system.cpu.dcache.demand_hits::.cpu.data         3802                       # number of demand (read+write) hits
system.cpu.dcache.demand_hits::total             3802                       # number of demand (read+write) hits
system.cpu.dcache.overall_hits::.cpu.data         3822                       # number of overall hits
system.cpu.dcache.overall_hits::total            3822                       # number of overall hits
system.cpu.dcache.demand_misses::.cpu.data          239                       # number of demand (read+write) misses
system.cpu.dcache.demand_misses::total            239                       # number of demand (read+write) misses
system.cpu.dcache.overall_misses::.cpu.data          252                       # number of overall misses
system.cpu.dcache.overall_misses::total           252                       # number of overall misses
system.cpu.dcache.demand_miss_latency::.cpu.data     24376000                       # number of demand (read+write) miss cycles
system.cpu.dcache.demand_miss_latency::total     24376000                       # number of demand (read+write) miss cycles
system.cpu.dcache.overall_miss_latency::.cpu.data     24376000                       # number of overall miss cycles
system.cpu.dcache.overall_miss_latency::total     24376000                       # number of overall miss cycles
system.cpu.dcache.demand_accesses::.cpu.data         4041                       # number of demand (read+write) accesses
system.cpu.dcache.demand_accesses::total         4041                       # number of demand (read+write) accesses
system.cpu.dcache.overall_accesses::.cpu.data         4074                       # number of overall (read+write) accesses
system.cpu.dcache.overall_accesses::total         4074                       # number of overall (read+write) accesses
system.cpu.dcache.demand_miss_rate::.cpu.data     0.059144                       # miss rate for demand accesses
system.cpu.dcache.demand_miss_rate::total     0.059144                       # miss rate for demand accesses
system.cpu.dcache.overall_miss_rate::.cpu.data     0.061856                       # miss rate for overall accesses
system.cpu.dcache.overall_miss_rate::total     0.061856                       # miss rate for overall accesses
system.cpu.dcache.demand_avg_miss_latency::.cpu.data 101991.631799                       # average overall miss latency
system.cpu.dcache.demand_avg_miss_latency::total 101991.631799                       # average overall miss latency
system.cpu.dcache.overall_avg_miss_latency::.cpu.data 96730.158730                       # average overall miss latency
system.cpu.dcache.overall_avg_miss_latency::total 96730.158730                       # average overall miss latency
system.cpu.dcache.blocked_cycles::no_mshrs            0                       # number of cycles access was blocked
system.cpu.dcache.blocked_cycles::no_targets            0                       # number of cycles access was blocked
system.cpu.dcache.blocked::no_mshrs                 0                       # number of cycles access was blocked
system.cpu.dcache.blocked::no_targets               0                       # number of cycles access was blocked
system.cpu.dcache.avg_blocked_cycles::no_mshrs          nan                       # average number of cycles each access was blocked
system.cpu.dcache.avg_blocked_cycles::no_targets          nan                       # average number of cycles each access was blocked
system.cpu.dcache.demand_mshr_hits::.cpu.data           55                       # number of demand (read+write) MSHR hits
system.cpu.dcache.demand_mshr_hits::total           55                       # number of demand (read+write) MSHR hits
system.cpu.dcache.overall_mshr_hits::.cpu.data           55                       # number of overall MSHR hits
system.cpu.dcache.overall_mshr_hits::total           55                       # number of overall MSHR hits
system.cpu.dcache.demand_mshr_misses::.cpu.data          184                       # number of demand (read+write) MSHR misses
system.cpu.dcache.demand_mshr_misses::total          184                       # number of demand (read+write) MSHR misses
system.cpu.dcache.overall_mshr_misses::.cpu.data          193                       # number of overall MSHR misses
system.cpu.dcache.overall_mshr_misses::total          193                       # number of overall MSHR misses
system.cpu.dcache.demand_mshr_miss_latency::.cpu.data     18374000                       # number of demand (read+write) MSHR miss cycles
system.cpu.dcache.demand_mshr_miss_latency::total     18374000                       # number of demand (read+write) MSHR miss cycles
system.cpu.dcache.overall_mshr_miss_latency::.cpu.data     19280000                       # number of overall MSHR miss cycles
system.cpu.dcache.overall_mshr_miss_latency::total     19280000                       # number of overall MSHR miss cycles
system.cpu.dcache.demand_mshr_miss_rate::.cpu.data     0.045533                       # mshr miss rate for demand accesses
system.cpu.dcache.demand_mshr_miss_rate::total     0.045533                       # mshr miss rate for demand accesses
system.cpu.dcache.overall_mshr_miss_rate::.cpu.data     0.047374                       # mshr miss rate for overall accesses
system.cpu.dcache.overall_mshr_miss_rate::total     0.047374                       # mshr miss rate for overall accesses
system.cpu.dcache.demand_avg_mshr_miss_latency::.cpu.data 99858.695652                       # average overall mshr miss latency
system.cpu.dcache.demand_avg_mshr_miss_latency::total 99858.695652                       # average overall mshr miss latency
system.cpu.dcache.overall_avg_mshr_miss_latency::.cpu.data 99896.373057                       # average overall mshr miss latency
system.cpu.dcache.overall_avg_mshr_miss_latency::total 99896.373057                       # average overall mshr miss latency
system.cpu.dcache.replacements                      4                       # number of replacements
system.cpu.dcache.ReadReq_hits::.cpu.data         2082                       # number of ReadReq hits
system.cpu.dcache.ReadReq_hits::total            2082                       # number of ReadReq hits
system.cpu.dcache.ReadReq_misses::.cpu.data          114                       # number of ReadReq misses
system.cpu.dcache.ReadReq_misses::total           114                       # number of ReadReq misses
system.cpu.dcache.ReadReq_miss_latency::.cpu.data     11335000                       # number of ReadReq miss cycles
system.cpu.dcache.ReadReq_miss_latency::total     11335000                       # number of ReadReq miss cycles
system.cpu.dcache.ReadReq_accesses::.cpu.data         2196                       # number of ReadReq accesses(hits+misses)
system.cpu.dcache.ReadReq_accesses::total         2196                       # number of ReadReq accesses(hits+misses)
system.cpu.dcache.ReadReq_miss_rate::.cpu.data     0.051913                       # miss rate for ReadReq accesses
system.cpu.dcache.ReadReq_miss_rate::total     0.051913                       # miss rate for ReadReq accesses
system.cpu.dcache.ReadReq_avg_miss_latency::.cpu.data 99429.824561                       # average ReadReq miss latency
system.cpu.dcache.ReadReq_avg_miss_latency::total 99429.824561                       # average ReadReq miss latency
system.cpu.dcache.ReadReq_mshr_hits::.cpu.data            5                       # number of ReadReq MSHR hits
system.cpu.dcache.ReadReq_mshr_hits::total            5                       # number of ReadReq MSHR hits
system.cpu.dcache.ReadReq_mshr_misses::.cpu.data          109                       # number of ReadReq MSHR misses
system.cpu.dcache.ReadReq_mshr_misses::total          109                       # number of ReadReq MSHR misses
system.cpu.dcache.ReadReq_mshr_miss_latency::.cpu.data     10613000                       # number of ReadReq MSHR miss cycles
system.cpu.dcache.ReadReq_mshr_miss_latency::total     10613000                       # number of ReadReq MSHR miss cycles
system.cpu.dcache.ReadReq_mshr_miss_rate::.cpu.data     0.049636                       # mshr miss rate for ReadReq accesses
system.cpu.dcache.ReadReq_mshr_miss_rate::total     0.049636                       # mshr miss rate for ReadReq accesses
system.cpu.dcache.ReadReq_avg_mshr_miss_latency::.cpu.data 97366.972477                       # average ReadReq mshr miss latency
system.cpu.dcache.ReadReq_avg_mshr_miss_latency::total 97366.972477                       # average ReadReq mshr miss latency
system.cpu.dcache.WriteReq_hits::.cpu.data         1720                       # number of WriteReq hits
system.cpu.dcache.WriteReq_hits::total           1720                       # number of WriteReq hits
system.cpu.dcache.WriteReq_misses::.cpu.data          125                       # number of WriteReq misses
system.cpu.dcache.WriteReq_misses::total          125                       # number of WriteReq misses
system.cpu.dcache.WriteReq_miss_latency::.cpu.data     13041000                       # number of WriteReq miss cycles
system.cpu.dcache.WriteReq_miss_latency::total     13041000                       # number of WriteReq miss cycles
system.cpu.dcache.WriteReq_accesses::.cpu.data         1845                       # number of WriteReq accesses(hits+misses)
system.cpu.dcache.WriteReq_accesses::total         1845                       # number of WriteReq accesses(hits+misses)
system.cpu.dcache.WriteReq_miss_rate::.cpu.data     0.067751                       # miss rate for WriteReq accesses
system.cpu.dcache.WriteReq_miss_rate::total     0.067751                       # miss rate for WriteReq accesses
system.cpu.dcache.WriteReq_avg_miss_latency::.cpu.data       104328                       # average WriteReq miss latency
system.cpu.dcache.WriteReq_avg_miss_latency::total       104328                       # average WriteReq miss latency
system.cpu.dcache.WriteReq_mshr_hits::.cpu.data           50                       # number of WriteReq MSHR hits
system.cpu.dcache.WriteReq_mshr_hits::total           50                       # number of WriteReq MSHR hits
system.cpu.dcache.WriteReq_mshr_misses::.cpu.data           75                       # number of WriteReq MSHR misses
system.cpu.dcache.WriteReq_mshr_misses::total           75                       # number of WriteReq MSHR misses
system.cpu.dcache.WriteReq_mshr_miss_latency::.cpu.data      7761000                       # number of WriteReq MSHR miss cycles
system.cpu.dcache.WriteReq_mshr_miss_latency::total      7761000                       # number of WriteReq MSHR miss cycles
system.cpu.dcache.WriteReq_mshr_miss_rate::.cpu.data     0.040650                       # mshr miss rate for WriteReq accesses
system.cpu.dcache.WriteReq_mshr_miss_rate::total     0.040650                       # mshr miss rate for WriteReq accesses
system.cpu.dcache.WriteReq_avg_mshr_miss_latency::.cpu.data       103480                       # average WriteReq mshr miss latency
system.cpu.dcache.WriteReq_avg_mshr_miss_latency::total       103480                       # average WriteReq mshr miss latency
system.cpu.dcache.SoftPFReq_hits::.cpu.data           20                       # number of SoftPFReq hits
system.cpu.dcache.SoftPFReq_hits::total            20                       # number of SoftPFReq hits
system.cpu.dcache.SoftPFReq_misses::.cpu.data           13                       # number of SoftPFReq misses
system.cpu.dcache.SoftPFReq_misses::total           13                       # number of SoftPFReq misses
system.cpu.dcache.SoftPFReq_accesses::.cpu.data           33                       # number of SoftPFReq accesses(hits+misses)
system.cpu.dcache.SoftPFReq_accesses::total           33                       # number of SoftPFReq accesses(hits+misses)
system.cpu.dcache.SoftPFReq_miss_rate::.cpu.data     0.393939                       # miss rate for SoftPFReq accesses
system.cpu.dcache.SoftPFReq_miss_rate::total     0.393939                       # miss rate for SoftPFReq accesses
system.cpu.dcache.SoftPFReq_mshr_misses::.cpu.data            9                       # number of SoftPFReq MSHR misses
system.cpu.dcache.SoftPFReq_mshr_misses::total            9                       # number of SoftPFReq MSHR misses
system.cpu.dcache.SoftPFReq_mshr_miss_latency::.cpu.data       906000                       # number of SoftPFReq MSHR miss cycles
system.cpu.dcache.SoftPFReq_mshr_miss_latency::total       906000                       # number of SoftPFReq MSHR miss cycles
system.cpu.dcache.SoftPFReq_mshr_miss_rate::.cpu.data     0.272727                       # mshr miss rate for SoftPFReq accesses
system.cpu.dcache.SoftPFReq_mshr_miss_rate::total     0.272727                       # mshr miss rate for SoftPFReq accesses
system.cpu.dcache.SoftPFReq_avg_mshr_miss_latency::.cpu.data 100666.666667                       # average SoftPFReq mshr miss latency
system.cpu.dcache.SoftPFReq_avg_mshr_miss_latency::total 100666.666667                       # average SoftPFReq mshr miss latency
system.cpu.dcache.LoadLockedReq_hits::.cpu.data           18                       # number of LoadLockedReq hits
system.cpu.dcache.LoadLockedReq_hits::total           18                       # number of LoadLockedReq hits
system.cpu.dcache.LoadLockedReq_accesses::.cpu.data           18                       # number of LoadLockedReq accesses(hits+misses)
system.cpu.dcache.LoadLockedReq_accesses::total           18                       # number of LoadLockedReq accesses(hits+misses)
system.cpu.dcache.StoreCondReq_hits::.cpu.data           18                       # number of StoreCondReq hits
system.cpu.dcache.StoreCondReq_hits::total           18                       # number of StoreCondReq hits
system.cpu.dcache.StoreCondReq_accesses::.cpu.data           18                       # number of StoreCondReq accesses(hits+misses)
system.cpu.dcache.StoreCondReq_accesses::total           18                       # number of StoreCondReq accesses(hits+misses)
system.cpu.dcache.tags.pwrStateResidencyTicks::UNDEFINED     64627000                       # Cumulative time (in ticks) in various power states
system.cpu.dcache.tags.tagsinuse           108.965588                       # Cycle average of tags in use
system.cpu.dcache.tags.total_refs                4051                       # Total number of references to valid blocks.
system.cpu.dcache.tags.sampled_refs               193                       # Sample count of references to valid blocks.
system.cpu.dcache.tags.avg_refs             20.989637                       # Average number of references to valid blocks.
system.cpu.dcache.tags.warmup_cycle            223000                       # Cycle when the warmup percentage was hit.
system.cpu.dcache.tags.occ_blocks::.cpu.data   108.965588                       # Average occupied blocks per requestor
system.cpu.dcache.tags.occ_percent::.cpu.data     0.106412                       # Average percentage of cache occupancy
system.cpu.dcache.tags.occ_percent::total     0.106412                       # Average percentage of cache occupancy
system.cpu.dcache.tags.occ_task_id_blocks::1024          189                       # Occupied blocks per task id
system.cpu.dcache.tags.age_task_id_blocks_1024::0           18                       # Occupied blocks per task id
system.cpu.dcache.tags.age_task_id_blocks_1024::1          171                       # Occupied blocks per task id
system.cpu.dcache.tags.occ_task_id_percent::1024     0.184570                       # Percentage of cache occupancy per task id
system.cpu.dcache.tags.tag_accesses              8413                       # Number of tag accesses
system.cpu.dcache.tags.data_accesses             8413                       # Number of data accesses
system.cpu.itb.walker.pwrStateResidencyTicks::UNDEFINED     64627000                       # Cumulative time (in ticks) in various power states
system.cpu.itb.stage2_mmu.stage2_tlb.walker.pwrStateResidencyTicks::UNDEFINED     64627000                       # Cumulative time (in ticks) in various power states

---------- End Simulation Statistics   ----------
